FoamFile
{
    version     2.0;
    format      ascii;
    location    "constant/polyMesh";
    class       polyBoundaryMesh;
    object      boundary;
}

// * * * * * * * * * * * * * * * * * * * * * * * * * * * * * * * * * * * * * //

2
(
    front-back
    {
        type empty;
        nFaces 80000;
        startFace 79600;
    }
    periodic
    {
        type cyclic;
        nFaces 800;
        startFace 159600;
    }
)


// ************************************************************************* //
