/*--------------------------------*- C++ -*----------------------------------*\
| =========                 |                                                 |
| \\      /  F ield         | OpenFOAM: The Open Source CFD Toolbox           |
|  \\    /   O peration     | Version:  2.1.1                                 |
|   \\  /    A nd           | Web:      www.OpenFOAM.org                      |
|    \\/     M anipulation  |                                                 |
\*---------------------------------------------------------------------------*/
FoamFile
{
    version     2.0;
    format      ascii;
    class       volScalarField;
    location    "0";
    object      T;
}
// * * * * * * * * * * * * * * * * * * * * * * * * * * * * * * * * * * * * * //

dimensions      [0 0 0 1 0 0 0];

internalField   uniform 0.3;

boundaryField
{
    front-back
    {
        type            empty;
    }
    periodic_half0
    {
        type            cyclic;
    }
    periodic_half1
    {
        type            cyclic;
    }
    procBoundary1to0
    {
        type            processor;
        value           uniform 0.3;
    }
    procBoundary1to0throughperiodic_half1
    {
        type            processorCyclic;
        value           uniform 0.3;
    }
    procBoundary1to3
    {
        type            processor;
        value           uniform 0.3;
    }
    procBoundary1to3throughperiodic_half1
    {
        type            processorCyclic;
        value           uniform 0.3;
    }
}


// ************************************************************************* //
