/*--------------------------------*- C++ -*----------------------------------*\
| =========                 |                                                 |
| \\      /  F ield         | OpenFOAM: The Open Source CFD Toolbox           |
|  \\    /   O peration     | Version:  2.1.1                                 |
|   \\  /    A nd           | Web:      www.OpenFOAM.org                      |
|    \\/     M anipulation  |                                                 |
\*---------------------------------------------------------------------------*/
FoamFile
{
    version     2.0;
    format      ascii;
    class       volScalarField;
    location    "0";
    object      p;
}
// * * * * * * * * * * * * * * * * * * * * * * * * * * * * * * * * * * * * * //

dimensions      [1 -1 -2 0 0 0 0];

internalField   uniform 1.667;

boundaryField
{
    front-back
    {
        type            empty;
    }
    periodic_half0
    {
        type            cyclic;
    }
    periodic_half1
    {
        type            cyclic;
    }
    procBoundary3to1
    {
        type            processor;
        value           uniform 1.667;
    }
    procBoundary3to1throughperiodic_half0
    {
        type            processorCyclic;
        value           uniform 1.667;
    }
    procBoundary3to2
    {
        type            processor;
        value           uniform 1.667;
    }
    procBoundary3to2throughperiodic_half1
    {
        type            processorCyclic;
        value           uniform 1.667;
    }
}


// ************************************************************************* //
